.model BZX84B6V2L D(Is=990.87E-18 N=1.056 Rs=149.7m Ikf=15.79 Cjo=33.12p M=319.2m Vj=617.4m Isr=987.9f Nr=3.8 Bv=6.2 Ibv=5m tt=65n Nbv=500m Tbv1=403u Ibvl=20u Nbvl=11 Vpk=6.2 mfg=Rohm type=Zener)