Version 4
SHEET 1 5552 2148
WIRE 464 -480 -768 -480
WIRE -1312 -432 -1840 -432
WIRE -528 -432 -1312 -432
WIRE -384 -432 -528 -432
WIRE 272 -432 -384 -432
WIRE -528 -416 -528 -432
WIRE -384 -384 -384 -432
WIRE -528 -304 -528 -352
WIRE -384 -256 -384 -304
WIRE -528 -208 -528 -240
WIRE -448 -208 -528 -208
WIRE -432 -208 -448 -208
WIRE -528 -160 -528 -208
WIRE -1840 -128 -1840 -432
WIRE -528 -64 -528 -80
WIRE 160 -16 0 -16
WIRE -1840 32 -1840 -48
WIRE -1744 32 -1840 32
WIRE -384 32 -384 -160
WIRE -384 32 -512 32
WIRE -112 32 -272 32
WIRE -64 32 -112 32
WIRE 160 32 160 -16
WIRE 272 32 272 -432
WIRE 272 32 160 32
WIRE -512 48 -512 32
WIRE 272 48 272 32
WIRE 64 80 0 80
WIRE 96 80 64 80
WIRE -1840 96 -1840 32
WIRE -1216 128 -1248 128
WIRE -1040 128 -1152 128
WIRE -384 128 -384 32
WIRE -272 128 -272 32
WIRE -272 128 -384 128
WIRE 272 128 272 112
WIRE 272 128 160 128
WIRE -384 144 -384 128
WIRE -1040 192 -1040 128
WIRE -768 192 -768 -480
WIRE -768 192 -1040 192
WIRE -512 192 -512 128
WIRE -448 192 -512 192
WIRE 64 192 64 80
WIRE 128 192 64 192
WIRE 272 192 272 128
WIRE 272 192 208 192
WIRE -112 208 -112 32
WIRE -1248 256 -1248 128
WIRE -1216 256 -1248 256
WIRE -1040 256 -1040 192
WIRE -1040 256 -1136 256
WIRE -512 256 -512 192
WIRE 272 256 272 192
WIRE 272 256 -48 256
WIRE 272 272 272 256
WIRE -1312 320 -1312 -432
WIRE -1168 320 -1312 320
WIRE -1168 336 -1168 320
WIRE -1440 352 -1552 352
WIRE -1360 352 -1376 352
WIRE -1248 352 -1248 256
WIRE -1248 352 -1280 352
WIRE -1200 352 -1248 352
WIRE -512 368 -512 336
WIRE -512 368 -1136 368
WIRE -384 368 -384 240
WIRE -384 368 -512 368
WIRE -112 368 -112 304
WIRE 272 368 272 352
WIRE 272 368 -112 368
WIRE 464 368 464 -480
WIRE 464 368 272 368
WIRE -1200 384 -1216 384
WIRE 272 384 272 368
WIRE -1216 416 -1216 384
WIRE -1552 432 -1552 352
WIRE -112 432 -112 368
WIRE 272 480 272 464
WIRE 272 480 -48 480
WIRE -1216 528 -1216 496
WIRE 160 544 0 544
WIRE -1552 576 -1552 512
WIRE -384 592 -384 368
WIRE -112 592 -112 528
WIRE -112 592 -384 592
WIRE -64 592 -112 592
WIRE 160 592 160 544
WIRE 272 592 272 480
WIRE 272 592 160 592
WIRE 272 608 272 592
WIRE 64 640 0 640
WIRE 96 640 64 640
WIRE 272 688 272 672
WIRE 272 688 160 688
WIRE -384 720 -384 592
WIRE 64 752 64 640
WIRE 128 752 64 752
WIRE 272 752 272 688
WIRE 272 752 208 752
WIRE -1552 880 -1568 880
WIRE -1168 880 -1168 400
WIRE -1168 880 -1552 880
WIRE -384 880 -384 800
WIRE -384 880 -1168 880
WIRE 272 880 272 752
WIRE 272 880 -384 880
WIRE -1840 896 -1840 176
WIRE -1552 896 -1552 880
WIRE -1552 896 -1840 896
FLAG -528 -64 0
FLAG -1216 528 0
FLAG 464 448 0
FLAG -1744 32 0
FLAG -1552 576 0
SYMBOL npn 96 32 R0
SYMATTR InstName Q1
SYMATTR Value BC547C
SYMBOL npn -64 -16 R0
SYMATTR InstName Q2
SYMATTR Value BC547C
SYMBOL res 224 176 R90
WINDOW 0 0 56 VBottom 2
WINDOW 3 32 56 VTop 2
SYMATTR InstName R1
SYMATTR Value 120
SYMBOL npn -48 208 M0
SYMATTR InstName Q3
SYMATTR Value BC547B
SYMBOL res 256 256 R0
SYMATTR InstName R2
SYMATTR Value 0.1
SYMBOL res 256 368 R0
SYMATTR InstName R3
SYMATTR Value 0.1
SYMBOL pnp -48 528 R180
SYMATTR InstName Q4
SYMATTR Value BC557B
SYMBOL npn 96 592 R0
SYMATTR InstName Q5
SYMATTR Value BC547C
SYMBOL res 224 736 R90
WINDOW 0 0 56 VBottom 2
WINDOW 3 32 56 VTop 2
SYMATTR InstName R4
SYMATTR Value 120
SYMBOL pnp -64 640 M180
SYMATTR InstName Q6
SYMATTR Value BC557C
SYMBOL npn -448 144 R0
SYMATTR InstName Q13
SYMATTR Value BC547C
SYMBOL res -528 32 R0
SYMATTR InstName R10
SYMATTR Value 5000
SYMBOL res -528 240 R0
SYMATTR InstName R11
SYMATTR Value 2700
SYMBOL pnp -448 -160 M180
SYMATTR InstName Q15
SYMATTR Value BC557C
SYMBOL res -400 -400 R0
SYMATTR InstName R18
SYMATTR Value 100
SYMBOL res -544 -176 R0
SYMATTR InstName R19
SYMATTR Value 3k3
SYMBOL diode -544 -416 R0
SYMATTR InstName D5
SYMATTR Value 1N4148
SYMBOL diode -544 -304 R0
SYMATTR InstName D6
SYMATTR Value 1N4148
SYMBOL Opamps\\opamp2 -1168 304 R0
SYMATTR InstName U2
SYMATTR Value TL084
SYMBOL res -1200 512 R180
WINDOW 0 36 76 Left 2
WINDOW 3 36 40 Left 2
SYMATTR InstName R24
SYMATTR Value 33k
SYMBOL res -1264 336 R90
WINDOW 0 0 56 VBottom 2
WINDOW 3 32 56 VTop 2
SYMATTR InstName R25
SYMATTR Value 33k
SYMBOL cap -1376 336 R90
WINDOW 0 0 32 VBottom 2
WINDOW 3 32 32 VTop 2
SYMATTR InstName C1
SYMATTR Value 242n
SYMBOL res -1120 240 R90
WINDOW 0 0 56 VBottom 2
WINDOW 3 32 56 VTop 2
SYMATTR InstName R26
SYMATTR Value 330k
SYMBOL cap -1152 112 R90
WINDOW 0 0 32 VBottom 2
WINDOW 3 32 32 VTop 2
SYMATTR InstName C2
SYMATTR Value 24p
SYMBOL res 448 352 R0
SYMATTR InstName R5
SYMATTR Value 8
SYMBOL voltage -1840 -144 R0
WINDOW 123 0 0 Left 0
WINDOW 39 0 0 Left 0
SYMATTR InstName V3
SYMATTR Value 18
SYMBOL voltage -1840 80 R0
WINDOW 123 0 0 Left 0
WINDOW 39 0 0 Left 0
SYMATTR InstName V4
SYMATTR Value 18
SYMBOL voltage -1552 416 R0
WINDOW 123 0 0 Left 0
WINDOW 39 0 0 Left 0
SYMATTR InstName V5
SYMATTR Value SINE(0 1.4 1k)
SYMBOL diode 288 112 R180
WINDOW 0 24 64 Left 2
WINDOW 3 24 0 Left 2
SYMATTR InstName D1
SYMBOL diode 288 672 R180
WINDOW 0 24 64 Left 2
WINDOW 3 24 0 Left 2
SYMATTR InstName D2
TEXT -160 -96 Left 2 ;Push&Pull w/ Linear Protection
TEXT -608 -88 Left 2 ;Vbe Multiplicator
TEXT -1874 1050 Left 2 !.tran 3m
TEXT -1232 -168 Left 2 !.inc 'TL084.301'
RECTANGLE Normal -272 448 -608 -64 2
RECTANGLE Normal 352 832 -192 -64 2
