.model BZX84C15VL D(Is=2.256f N=1.088 Rs=251.6m Ikf=6.363 Cjo=17.61p M=309.9m Vj=513.3m Isr=4.045p Nr=4 Bv=15 Ibv=5m tt=151n Nbv=400m Tbv1=709u Ibvl=15p Nbvl=60 Vpk=15 mfg=Rohm type=Zener)