Version 4
SHEET 1 1496 680
WIRE -160 -48 -208 -48
WIRE -48 -48 -80 -48
WIRE 48 -48 -48 -48
WIRE 80 -48 48 -48
WIRE 192 -48 176 -48
WIRE 208 -48 192 -48
WIRE 304 -48 288 -48
WIRE 352 -48 304 -48
WIRE 448 -48 352 -48
WIRE 304 0 304 -48
WIRE 304 0 288 0
WIRE 352 0 352 -48
WIRE 448 0 448 -48
WIRE -208 16 -208 -48
WIRE -48 32 -48 -48
WIRE 48 32 48 -48
WIRE 192 48 192 -48
WIRE 224 48 192 48
WIRE 48 144 48 112
WIRE 128 144 128 16
WIRE 128 144 48 144
WIRE 288 144 288 96
WIRE 288 144 128 144
WIRE 448 144 448 80
WIRE 48 176 48 144
WIRE 352 176 352 80
WIRE 352 176 288 176
WIRE 288 224 288 176
WIRE 288 224 112 224
WIRE 352 224 352 176
WIRE -48 272 -48 112
WIRE 48 272 -48 272
WIRE -48 288 -48 272
WIRE -208 304 -208 96
WIRE 352 368 352 304
WIRE -48 384 -48 352
FLAG -208 304 0
FLAG -48 384 0
FLAG 352 368 0
FLAG 448 144 0
SYMBOL npn 80 16 R270
SYMATTR InstName Q1
SYMATTR Value BC547B
SYMBOL res 336 -16 R0
SYMATTR InstName R1
SYMATTR Value 560
SYMBOL res 336 208 R0
SYMATTR InstName R2
SYMATTR Value 2k2
SYMBOL res -64 16 R0
SYMATTR InstName R3
SYMATTR Value 220
SYMBOL voltage -208 0 R0
WINDOW 123 0 0 Left 0
WINDOW 39 0 0 Left 0
SYMATTR InstName V1
SYMATTR Value 10
SYMBOL voltage -496 192 R0
WINDOW 123 0 0 Left 0
WINDOW 39 0 0 Left 0
SYMATTR InstName V2
SYMATTR Value SINE(0 1 50)
SYMBOL res 432 -16 R0
SYMATTR InstName RL
SYMATTR Value 100
SYMBOL npn 224 96 M180
WINDOW 3 -23 62 Left 2
SYMATTR Value BC547B
SYMATTR InstName Q2
SYMBOL res 304 -64 R90
WINDOW 0 0 56 VBottom 2
WINDOW 3 32 56 VTop 2
SYMATTR InstName R4
SYMATTR Value 3.3
SYMBOL npn 112 176 M0
WINDOW 3 -23 62 Left 2
SYMATTR Value 2N3904
SYMATTR InstName Q3
SYMBOL res 32 16 R0
SYMATTR InstName R5
SYMATTR Value 5k
SYMBOL res -64 -64 R90
WINDOW 0 0 56 VBottom 2
WINDOW 3 32 56 VTop 2
SYMATTR InstName R6
SYMATTR Value 10
SYMBOL zener -32 352 R180
WINDOW 0 24 64 Left 2
WINDOW 3 24 0 Left 2
SYMATTR InstName D1
SYMATTR Value 1N746
TEXT -384 408 Left 2 !.tran 0 1 0
TEXT 112 -336 Left 2 !; El valor de RP depende de la juntura BE , por lo tanto puede ser ajustada para elegir la corriente de salida : Vbe/Imax
TEXT -656 184 Left 2 !;ruido
TEXT -80 456 Left 2 ;El diodo 1N746 tiene una Imant = 20mA y una Imax = 150mA.\nNos aseguramos de que fluyan 30mA.
TEXT 464 -8 Left 2 ;Carga
TEXT 16 -152 Left 2 ;Transistor de Paso
